<?xml version="1.0" encoding="iso-8859-1"?>
<!--
<ReadMe>

This XML can be imported in Altium Designer 14 using WEBENCH Altium Connector Extension and simulated using WEBENCH Simulation Engine.
The WEBENCH Altium Connector provides an interface to the Texas Instruments WEBENCH Designer Tools as well as to open WEBENCH exported Designs directly from inside Altium Designer.
It also includes the advanced WEBENCH Simulation Engine which can be used for offline circuit simulations.
You will need a activation key from TI to be able to use the WEBENCH Simulation Engine.
You can download the WEBENCH extension from Altium Designer 14 Extensions.

Press Release:
http://www.altium.com/en/altium/press-center/press-releases/altium-designer-connects-ti%E2%80%99s-webench%C2%AE-power-supply-tools-fast

How to use:
http://blog.live.altium.com/#Blogs/ti-webench-release

Connector Details
http://techdocs.altium.com/display/ATPE/WEBENCH+Altium+Connector

User Manual:
http://techdocs.altium.com/sites/default/files/wiki_attachments/235782/WEBENCH_Altium_Connector_User_Guide_v1.2.pdf

</ReadMe>
-->
<schematic>
  <circuit>
    <text id="T_123456" position="400,-148" fontname="Times New Roman" fontsize="27" bold="0" color="#294901">
      <![CDATA[TPS562200 Startup Simulation
(Exported from WEBENCH® Designer)]]>
    </text>
    <text id="T_123456" position="945,-148" fontname="Arial" fontsize="13" bold="1" italic="1" color="#278190" border="1">
      <![CDATA[Title :    TPS562200DDCR 12V-12V to 5.00V @ 1A
-------------------------------------------------------------------------
WEBENCH® User ID                      :       18043538
WEBENCH® Design ID                  :       1
Date of WEBENCH® Export           :       26-Jul-2025
Time of WEBENCH® Export          :       12:47:41 AM
WEBENCH® Export Tool Version :       E1.67-X2.01]]>
    </text>
    <component type="Cin" typeid="57" position="360,410" mirrored="0" nodematch="0" macrotype="2" orientation="0">
      <parameter idx="0" encrypted="0">
        <![CDATA[
***********************************
*     Created by WB Importer      *
***********************************
.SUBCKT MAIN_BLOCK_Cin_WB_CAP_POLARIZED 1 2
* C = 2.0E-5 F
* ESR = 0.002926 Ohm

Ccap 1 3 2.0E-5
Resr 3 2 0.002926

.ENDS]]>
      </parameter>
      <image>
        <hotzone points="-24,60,24,-60"/>
        <shape type="line" width="Hair" color="#0000ff" points="0,-60,0,-40"/>
        <shape type="line" width="Hair" color="#0000ff" points="0,60,0,40"/>
        <shape type="line" width="1" color="#0000ff" points="24,-6,-24,-6"/>
        <shape type="line" width="1" color="#0000ff" points="0,40,0,6"/>
        <shape type="line" width="1" color="#0000ff" points="0,-6,0,-40"/>
        <shape type="line" width="1" color="#0000ff" points="24,6,-24,6"/>
        <legend text="10 uF" position="8,18" orientation="0" fontname="Arial" fontsize="12" bold="0" italic="0" color="#229922"/>
        <legend text="5.852 mOhm" position="8,32" orientation="0" fontname="Arial" fontsize="12" bold="0" italic="0" color="#229922"/>
        <legend text="qty=2" position="8,48" orientation="0" fontname="Arial" fontsize="12" bold="0" italic="0" color="#229922"/>
        <pin position="0,-60" dir="0" length="0" text="1"/>
        <pin position="0,60" dir="0" length="0" text="2"/>
        <label text="Cin" position="366,388" textroot=" " orientation="0" color="#228822"/>
      </image>
    </component>
    <component type="Ground" typeid="2" position="890,660" orientation="0" mirrored="0">
      <image>
        <label text="GND1" position="890,660" textroot="GND1" orientation="0" color="#228822"/>
      </image>
    </component>
    <component type="IInductor" typeid="34" position="1260,200" mirrored="0" nodematch="0" macrotype="2" orientation="0">
      <parameter idx="0" encrypted="0">
        <![CDATA[***********************************
*     Created by WB Importer      *
***********************************
.SUBCKT IInductor 1 2 
V_Iprobe 1 2 0.0
.ENDS
]]>
      </parameter>
      <parameter idx="1" name="VALUE" value="0"/>
      <image>
        <hotzone points="-30,-6,30,6"/>
        <shape type="line" width="Hair" color="#0000ff" points="-30,0,30,0"/>
        <shape type="line" width="1" color="#0000ff" points="-6,-4,-6,4"/>
        <shape type="line" width="1" color="#0000ff" points="-6,4,4,0"/>
        <shape type="line" width="1" color="#0000ff" points="4,0,-6,-4"/>
        <pin position="-30,0" dir="0" length="0" text="1"/>
        <pin position="30,0" dir="0" length="0" text="2"/>
        <label text="IInductor" position="1260,200" textroot=" " orientation="0" color="#228822"/>
      </image>
    </component>
    <wire points="1850,640,1870,640" label=""/>
    <component type="Rfbb" mirrored="0" typeid="57" nodematch="0" macrotype="2" position="1480,520" orientation="0">
      <parameter idx="0" encrypted="0">
        <![CDATA[
***********************************
*     Created by WB Importer      *
***********************************
.subckt MAIN_BLOCK_WB_TPS562200_BUCK_BLOCK_Rfbb 4 0
Rfbb 4 0 10000.0

.ends]]>
      </parameter>
      <image>
        <hotzone points="-10,60,10,-60"/>
        <shape type="line" width="1" color="#0000ff" points="0,60,0,40"/>
        <shape type="line" width="1" color="#0000ff" points="0,40,-10,30"/>
        <shape type="line" width="1" color="#0000ff" points="-10,30,10,10"/>
        <shape type="line" width="1" color="#0000ff" points="10,10,-10,-10"/>
        <shape type="line" width="1" color="#0000ff" points="-10,-10,10,-30"/>
        <shape type="line" width="1" color="#0000ff" points="10,-30,0,-40"/>
        <shape type="line" width="1" color="#0000ff" points="0,-40,0,-60"/>
        <legend text="10 kOhm" position="10,-8" orientation="0" fontname="Arial" fontsize="12" bold="0" italic="0" color="#229922"/>
        <pin position="0,60" dir="0" length="0" text="0"/>
        <pin position="0,-60" dir="0" length="0" text="4"/>
        <label text="Rfbb" position="1498,490" textroot=" " orientation="0" color="#228822"/>
      </image>
    </component>
    <component type="VIn" typeid="4" position="390,200" orientation="0" mirrored="0">
      <image>
        <label text="VIn" position="390,170" textroot="VIn" orientation="0" color="#228822"/>
      </image>
    </component>
    <component type="Cbst" typeid="57" position="970,290" mirrored="0" nodematch="0" macrotype="2" orientation="0">
      <parameter idx="0" encrypted="0">
        <![CDATA[
***********************************
*     Created by WB Importer      *
***********************************
.SUBCKT MAIN_BLOCK_Cbst_WB_CAP_POLARIZED 1 2
* C = 1.0E-7 F
* ESR = 0.28 Ohm

Ccap 1 3 1.0E-7
Resr 3 2 0.28

.ENDS]]>
      </parameter>
      <image>
        <hotzone points="-24,60,24,-60"/>
        <shape type="line" width="Hair" color="#0000ff" points="0,-60,0,-40"/>
        <shape type="line" width="Hair" color="#0000ff" points="0,60,0,40"/>
        <shape type="line" width="1" color="#0000ff" points="24,-6,-24,-6"/>
        <shape type="line" width="1" color="#0000ff" points="0,40,0,6"/>
        <shape type="line" width="1" color="#0000ff" points="0,-6,0,-40"/>
        <shape type="line" width="1" color="#0000ff" points="24,6,-24,6"/>
        <legend text="100 nF" position="8,18" orientation="0" fontname="Arial" fontsize="12" bold="0" italic="0" color="#229922"/>
        <legend text="0.28 Ohm" position="8,32" orientation="0" fontname="Arial" fontsize="12" bold="0" italic="0" color="#229922"/>
        <legend text="" position="8,48" orientation="0" fontname="Arial" fontsize="12" bold="0" italic="0" color="#229922"/>
        <pin position="0,-60" dir="0" length="0" text="1"/>
        <pin position="0,60" dir="0" length="0" text="2"/>
        <label text="Cbst" position="976,268" textroot=" " orientation="0" color="#228822"/>
      </image>
    </component>
    <component type="IIC" typeid="34" position="470,200" mirrored="0" nodematch="0" macrotype="2" orientation="0">
      <parameter idx="0" encrypted="0">
        <![CDATA[***********************************
*     Created by WB Importer      *
***********************************
.SUBCKT IIC 1 2 
V_Iprobe 1 2 0.0
.ENDS
]]>
      </parameter>
      <parameter idx="1" name="VALUE" value="0"/>
      <image>
        <hotzone points="-30,-6,30,6"/>
        <shape type="line" width="Hair" color="#0000ff" points="-30,0,30,0"/>
        <shape type="line" width="1" color="#0000ff" points="-6,-4,-6,4"/>
        <shape type="line" width="1" color="#0000ff" points="-6,4,4,0"/>
        <shape type="line" width="1" color="#0000ff" points="4,0,-6,-4"/>
        <pin position="-30,0" dir="0" length="0" text="1"/>
        <pin position="30,0" dir="0" length="0" text="2"/>
        <label text="IIC" position="470,200" textroot=" " orientation="0" color="#228822"/>
      </image>
    </component>
    <component type="IIn" typeid="34" position="280,200" mirrored="0" nodematch="0" macrotype="2" orientation="0">
      <parameter idx="0" encrypted="0">
        <![CDATA[***********************************
*     Created by WB Importer      *
***********************************
.SUBCKT IIn 1 2 
V_Iprobe 1 2 0.0
.ENDS
]]>
      </parameter>
      <parameter idx="1" name="VALUE" value="0"/>
      <image>
        <hotzone points="-30,-6,30,6"/>
        <shape type="line" width="Hair" color="#0000ff" points="-30,0,30,0"/>
        <shape type="line" width="1" color="#0000ff" points="-6,-4,-6,4"/>
        <shape type="line" width="1" color="#0000ff" points="-6,4,4,0"/>
        <shape type="line" width="1" color="#0000ff" points="4,0,-6,-4"/>
        <pin position="-30,0" dir="0" length="0" text="1"/>
        <pin position="30,0" dir="0" length="0" text="2"/>
        <label text="IIn" position="280,200" textroot=" " orientation="0" color="#228822"/>
      </image>
    </component>
    <component type="ISwitch" typeid="34" position="1040,200" mirrored="0" nodematch="0" macrotype="2" orientation="0">
      <parameter idx="0" encrypted="0">
        <![CDATA[***********************************
*     Created by WB Importer      *
***********************************
.SUBCKT ISwitch 1 2 
V_Iprobe 1 2 0.0
.ENDS
]]>
      </parameter>
      <parameter idx="1" name="VALUE" value="0"/>
      <image>
        <hotzone points="-30,-6,30,6"/>
        <shape type="line" width="Hair" color="#0000ff" points="-30,0,30,0"/>
        <shape type="line" width="1" color="#0000ff" points="-6,-4,-6,4"/>
        <shape type="line" width="1" color="#0000ff" points="-6,4,4,0"/>
        <shape type="line" width="1" color="#0000ff" points="4,0,-6,-4"/>
        <pin position="-30,0" dir="0" length="0" text="1"/>
        <pin position="30,0" dir="0" length="0" text="2"/>
        <label text="ISwitch" position="1040,200" textroot=" " orientation="0" color="#228822"/>
      </image>
    </component>
    <component type="L1" typeid="57" position="1150,200" mirrored="0" nodematch="0" macrotype="2" orientation="0">
      <parameter idx="0" encrypted="0">
        <![CDATA[
***********************************
*     Created by WB Importer      *
***********************************
.SUBCKT MAIN_BLOCK_L1_WB_INDUCTOR 1 2
*{ L = 4.7E-6 DCR = 0.0376 }
* PARAMETERS: L INDUCTANCE IN HENRIES, DCR DC SERIES RESISTANCE IN OHMS

L1 2 3 4.7E-6
RDCR 3 1 0.0376

.ENDS]]>
      </parameter>
      <image>
        <hotzone points="-60,-10,60,10"/>
        <shape type="line" width="Hair" color="#0000ff" points="40,0,60,0"/>
        <shape type="line" width="Hair" color="#0000ff" points="-40,0,-60,0"/>
        <legend text="4.7 uH" position="-30,8" orientation="0" fontname="Arial" fontsize="12" bold="0" italic="0" color="#229922"/>
        <legend text="37.6 mOhm" position="-30,22" orientation="0" fontname="Arial" fontsize="12" bold="0" italic="0" color="#229922"/>
        <shape type="arc" color="#0000ff" width="2" points="-40,-10,-20,10,90,90"/>
        <shape type="arc" color="#0000ff" width="2" points="-40,-10,-20,10,0,90"/>
        <shape type="arc" color="#0000ff" width="2" points="-20,-10,0,10,90,90"/>
        <shape type="arc" color="#0000ff" width="2" points="-20,-10,0,10,0,90"/>
        <shape type="arc" color="#0000ff" width="2" points="0,-10,20,10,90,90"/>
        <shape type="arc" color="#0000ff" width="2" points="0,-10,20,10,0,90"/>
        <shape type="arc" color="#0000ff" width="2" points="20,-10,40,10,90,90"/>
        <shape type="arc" color="#0000ff" width="2" points="20,-10,40,10,0,90"/>
        <pin position="-60,0" dir="0" length="0" text="1"/>
        <pin position="60,0" dir="0" length="0" text="2"/>
        <label text="L1" position="1116,170" textroot=" " orientation="0" color="#228822"/>
      </image>
    </component>
    <component type="U1_TPS562200DDCR" typeid="57" position="720,260" mirrored="0" nodematch="0" macrotype="2" orientation="0">
      <parameter idx="0" encrypted="0">
        <![CDATA[***
*$
*U1_TPS562200DDCR
*****************************************************************************
* (C) Copyright 2013 Texas Instruments Incorporated. All rights reserved.
*****************************************************************************
** This model is designed as an aid for customers of Texas Instruments.
** TI and its licensors and suppliers make no warranties, either expressed
** or implied, with respect to this model, including the warranties of
** merchantability or fitness for a particular purpose. The model is
** provided solely on an "as is" basis. The entire risk as to its quality
** and performance is with the customer
*****************************************************************************
*
** Released by: WEBENCH(R) Design Center, Texas Instruments Inc.
* Part: U1_TPS562200DDCR
* Model Type: Transient
* Simulator: TINA
* Model Version: Final 1.00
*
*****************************************************************************
*
* Updates:
*
* Final 1.00
* Release to Web.
*
***************************************************************************
.SUBCKT MAIN_BLOCK_U1_WB_TPS562200DDC_ENCR GND SW VIN VFB EN VBST PARAMS: VOUT_SS=0 MODE=0
.include pspice://../MAIN_BLOCK.U1.WB_TPS562200DDC.enl
XCALL GND SW VIN VFB EN VBST MAIN_BLOCK_U1_WB_TPS562200DDC PARAMS: VOUT_SS=0 MODE=0 
.ENDS
]]>
      </parameter>
      <image>
        <hotzone points="-140,-160,140,140"/>
        <shape type="line" width="Hair" color="#0000ff" points="-100,100,100,100"/>
        <shape type="line" width="Hair" color="#0000ff" points="100,100,100,-120"/>
        <shape type="line" width="Hair" color="#0000ff" points="100,-120,-100,-120"/>
        <shape type="line" width="Hair" color="#0000ff" points="-100,-120,-100,100"/>
        <shape type="line" width="Hair" color="#0000ff" points="140,-60,100,-60"/>
        <shape type="line" width="Hair" color="#0000ff" points="-140,-60,-100,-60"/>
        <shape type="line" width="Hair" color="#0000ff" points="-140,0,-100,0"/>
        <shape type="line" width="Hair" color="#0000ff" points="-140,60,-100,60"/>
        <shape type="line" width="Hair" color="#0000ff" points="140,60,100,60"/>
        <shape type="line" width="Hair" color="#0000ff" points="140,0,100,0"/>
        <shape type="line" width="1" color="#ff0000" points="-1,-95,-2,-90"/>
        <shape type="line" width="1" color="#ff0000" points="-1,-97,-1,-97"/>
        <shape type="polygon" width="1" color="#ff0000" fill="#ff0000" points="-7,-99,-7,-93,-11,-93,-11,-92,-10,-91,-9,-89,-8,-88,-7,-88,-6,-89,-5,-88,-4,-86,-1,-84,0,-84,0,-86,1,-88,3,-89,4,-90,4,-93,3,-94,3,-96,1,-96,0,-94,2,-94,1,-92,0,-92,-1,-90,0,-90,0,-89,-1,-88,-3,-88,-4,-89,-3,-92,-5,-92,-4,-94,-3,-94,-3,-94,-2,-96,-4,-96,-4,-98,-4,-99"/>
        <legend text="TPS562200DDC" position="-48,-64" orientation="0" fontname="Arial" fontsize="10" bold="0" italic="0" color="4278190208"/>
        <pin position="-140,60" dir="0" length="0" text="GND">
          <legend text="GND" position="-118,50" orientation="0" fontname="Arial" fontsize="10" bold="0" italic="0" color="4286578688"/>
        </pin>
        <pin position="140,-60" dir="0" length="0" text="SW">
          <legend text="SW" position="100,-70" orientation="0" fontname="Arial" fontsize="10" bold="0" italic="0" color="4286578688"/>
        </pin>
        <pin position="-140,-60" dir="0" length="0" text="VIN">
          <legend text="VIN" position="-118,-70" orientation="0" fontname="Arial" fontsize="10" bold="0" italic="0" color="4286578688"/>
        </pin>
        <pin position="140,60" dir="0" length="0" text="VFB">
          <legend text="VFB" position="90,50" orientation="0" fontname="Arial" fontsize="10" bold="0" italic="0" color="4286578688"/>
        </pin>
        <pin position="-140,0" dir="0" length="0" text="EN">
          <legend text="EN" position="-118,-10" orientation="0" fontname="Arial" fontsize="10" bold="0" italic="0" color="4286578688"/>
        </pin>
        <pin position="140,0" dir="0" length="0" text="VBST">
          <legend text="VBST" position="80,-10" orientation="0" fontname="Arial" fontsize="10" bold="0" italic="0" color="4286578688"/>
        </pin>
        <label text="U1_TPS562200DDCR" position="580,90" textroot="U1_TPS562200DDCR" orientation="0" color="#228822"/>
      </image>
    </component>
    <component type="VSwitch" typeid="4" position="920,200" orientation="0" mirrored="0">
      <image>
        <label text="VSwitch" position="920,170" textroot="VSwitch" orientation="0" color="#228822"/>
      </image>
    </component>
    <component type="Cout" typeid="57" position="1670,400" mirrored="0" nodematch="0" macrotype="2" orientation="0">
      <parameter idx="0" encrypted="0">
        <![CDATA[
***********************************
*     Created by WB Importer      *
***********************************
.SUBCKT MAIN_BLOCK_Cout_WB_CAP_CERAMIC 2 4
*FAMILY = ANALOG
*FAMILY = ANALOG
R1 2 3 0.001855
C1 3 4 9.1E-6 IC=0.0
R3 5 4 5; free space reduced by sqrt(dielectric constant)
R2 2 4 1.098901098901099E8
R4 3 26 412222.22222222225
R6 3 7 412.2222222222223
C5 7 1 2.7299999999999997E-7 IC=0.0
R7 3 10 41.22222222222223
C6 10 1 2.7299999999999997E-7 IC=0.0
R8 3 13 4.122222222222223
C7 13 1 2.7299999999999997E-7 IC=0.0
C2 26 1 2.7299999999999997E-7 IC=0.0
R9 3 28 41222.222222222226
C3 28 1 2.7299999999999997E-7 IC=0.0
R10 3 29 4122.222222222223
C4 29 1 2.7299999999999997E-7 IC=0.0
L8 1 5 15p
R24 1 5 0.0055650000000000005
L12 5 4 1n
.ENDS]]>
      </parameter>
      <image>
        <hotzone points="-24,60,24,-60"/>
        <shape type="line" width="Hair" color="#0000ff" points="0,-60,0,-40"/>
        <shape type="line" width="Hair" color="#0000ff" points="0,60,0,40"/>
        <shape type="line" width="1" color="#0000ff" points="24,-6,-24,-6"/>
        <shape type="line" width="1" color="#0000ff" points="0,40,0,6"/>
        <shape type="line" width="1" color="#0000ff" points="0,-6,0,-40"/>
        <shape type="line" width="1" color="#0000ff" points="24,6,-24,6"/>
        <legend text="22 uF" position="8,18" orientation="0" fontname="Arial" fontsize="12" bold="0" italic="0" color="#229922"/>
        <legend text="3.71 mOhm" position="8,32" orientation="0" fontname="Arial" fontsize="12" bold="0" italic="0" color="#229922"/>
        <legend text="qty=2" position="8,48" orientation="0" fontname="Arial" fontsize="12" bold="0" italic="0" color="#229922"/>
        <pin position="0,-60" dir="0" length="0" text="2"/>
        <pin position="0,60" dir="0" length="0" text="4"/>
        <label text="Cout" position="1676,378" textroot=" " orientation="0" color="#228822"/>
      </image>
    </component>
    <component type="IOut" typeid="34" position="1820,200" mirrored="0" nodematch="0" macrotype="2" orientation="0">
      <parameter idx="0" encrypted="0">
        <![CDATA[***********************************
*     Created by WB Importer      *
***********************************
.SUBCKT IOut 1 2 
V_Iprobe 1 2 0.0
.ENDS
]]>
      </parameter>
      <parameter idx="1" name="VALUE" value="0"/>
      <image>
        <hotzone points="-30,-6,30,6"/>
        <shape type="line" width="Hair" color="#0000ff" points="-30,0,30,0"/>
        <shape type="line" width="1" color="#0000ff" points="-6,-4,-6,4"/>
        <shape type="line" width="1" color="#0000ff" points="-6,4,4,0"/>
        <shape type="line" width="1" color="#0000ff" points="4,0,-6,-4"/>
        <pin position="-30,0" dir="0" length="0" text="1"/>
        <pin position="30,0" dir="0" length="0" text="2"/>
        <label text="IOut" position="1820,200" textroot=" " orientation="0" color="#228822"/>
      </image>
    </component>
    <wire points="1850,200,1870,200" label=""/>
    <wire points="180,640,200,640" label=""/>
    <component type="Rfbt" mirrored="0" typeid="57" nodematch="0" macrotype="2" position="1480,320" orientation="0">
      <parameter idx="0" encrypted="0">
        <![CDATA[
***********************************
*     Created by WB Importer      *
***********************************
.subckt MAIN_BLOCK_WB_TPS562200_BUCK_BLOCK_Rfbt 7 4
Rfbt 7 4 56200.0

.ends]]>
      </parameter>
      <image>
        <hotzone points="-10,60,10,-60"/>
        <shape type="line" width="1" color="#0000ff" points="0,60,0,40"/>
        <shape type="line" width="1" color="#0000ff" points="0,40,-10,30"/>
        <shape type="line" width="1" color="#0000ff" points="-10,30,10,10"/>
        <shape type="line" width="1" color="#0000ff" points="10,10,-10,-10"/>
        <shape type="line" width="1" color="#0000ff" points="-10,-10,10,-30"/>
        <shape type="line" width="1" color="#0000ff" points="10,-30,0,-40"/>
        <shape type="line" width="1" color="#0000ff" points="0,-40,0,-60"/>
        <legend text="56.2 kOhm" position="10,-8" orientation="0" fontname="Arial" fontsize="12" bold="0" italic="0" color="#229922"/>
        <pin position="0,60" dir="0" length="0" text="4"/>
        <pin position="0,-60" dir="0" length="0" text="7"/>
        <label text="Rfbt" position="1498,290" textroot=" " orientation="0" color="#228822"/>
      </image>
    </component>
    <component type="ICout" typeid="34" position="1670,250" mirrored="0" nodematch="0" macrotype="2" orientation="0">
      <parameter idx="0" encrypted="0">
        <![CDATA[***********************************
*     Created by WB Importer      *
***********************************
.SUBCKT ICout 1 2 
V_Iprobe 1 2 0.0
.ENDS
]]>
      </parameter>
      <parameter idx="1" name="VALUE" value="0"/>
      <image>
        <hotzone points="6,-30,-6,30"/>
        <shape type="line" width="Hair" color="#0000ff" points="0,-30,0,30"/>
        <shape type="line" width="1" color="#0000ff" points="4,-6,-4,-6"/>
        <shape type="line" width="1" color="#0000ff" points="-4,-6,0,4"/>
        <shape type="line" width="1" color="#0000ff" points="0,4,4,-6"/>
        <pin position="0,-30" dir="0" length="0" text="1"/>
        <pin position="0,30" dir="0" length="0" text="2"/>
        <label text="ICout" position="1670,250" textroot=" " orientation="0" color="#228822"/>
      </image>
    </component>
    <wire points="180,200,200,200" label=""/>
    <component type="VOut" typeid="4" position="1710,200" orientation="0" mirrored="0">
      <image>
        <label text="VOut" position="1710,170" textroot="VOut" orientation="0" color="#228822"/>
      </image>
    </component>
    <wire points="200,200,250,200" label=""/>
    <wire points="360,470,360,640" label=""/>
    <wire points="360,350,360,200" label=""/>
    <wire points="440,200,310,200" label=""/>
    <wire points="500,200,580,200" label=""/>
    <wire points="560,320,560,640" label=""/>
    <wire points="560,260,580,260" label=""/>
    <wire points="560,200,560,260" label=""/>
    <wire points="580,320,560,320" label=""/>
    <wire points="860,400,860,320" label=""/>
    <wire points="860,400,1480,400" label=""/>
    <wire points="860,260,910,260" label=""/>
    <wire points="860,200,1010,200" label=""/>
    <wire points="890,660,890,640" label=""/>
    <wire points="910,350,910,260" label=""/>
    <wire points="970,350,910,350" label=""/>
    <wire points="970,230,970,200" label=""/>
    <wire points="1070,200,1090,200" label=""/>
    <wire points="1230,200,1210,200" label=""/>
    <wire points="1480,580,1480,640" label=""/>
    <wire points="1480,380,1480,460" label=""/>
    <wire points="1480,260,1480,200" label=""/>
    <wire points="1670,640,1670,460" label=""/>
    <wire points="1670,340,1670,280" label=""/>
    <wire points="1670,220,1670,200" label=""/>
    <wire points="1790,200,1290,200" label=""/>
    <wire points="1850,640,200,640" label=""/>
    <wire points="180,200,180,220" label=""/>
    <wire points="180,620,180,640" label=""/>
    <component type="Vin_2" typeid="57" position="180,360" mirrored="0" nodematch="0" macrotype="2" orientation="0">
      <parameter idx="0" encrypted="0">
        <![CDATA[
***********************************
*     Created by WB Importer      *
***********************************
.SUBCKT INPUT_BLOCK_Vin_WB_STARTUP_VOLTAGE_SOURCE 1 2
Rsource 3 1 0
Vin1 3 2 PULSE 0 12.0 0 10u
.ENDS]]>
      </parameter>
      <image>
        <hotzone points="30,-60,-30,60"/>
        <shape type="line" width="Hair" color="#0000ff" points="0,60,0,30"/>
        <shape type="line" width="Hair" color="#0000ff" points="0,-60,0,-30"/>
        <shape type="line" width="Hair" color="#0000ff" points="20,-30,20,-40"/>
        <shape type="line" width="Hair" color="#0000ff" points="14,-34,26,-34"/>
        <shape type="line" width="Hair" color="#0000ff" points="14,34,26,34"/>
        <shape type="line" width="1" color="#0000ff" points="-22,10,-16,10"/>
        <shape type="line" width="1" color="#0000ff" points="-16,10,-14,-10"/>
        <shape type="line" width="1" color="#0000ff" points="-14,-10,22,-10"/>
        <shape type="ellipse" points="-30,30,30,-30" color="#0000ff" width="2"/>
        <pin position="0,-60" dir="0" length="0" text="1"/>
        <pin position="0,60" dir="0" length="0" text="2"/>
        <label text="Vin_2" position="210,330" textroot=" " orientation="0" color="#228822"/>
      </image>
    </component>
    <wire points="180,420,180,620" label=""/>
    <wire points="180,300,180,220" label=""/>
    <component type="ILoad" typeid="34" position="1870,310" mirrored="0" nodematch="0" macrotype="2" orientation="0">
      <parameter idx="0" encrypted="0">
        <![CDATA[***********************************
*     Created by WB Importer      *
***********************************
.SUBCKT ILoad 1 2 
V_Iprobe 1 2 0.0
.ENDS
]]>
      </parameter>
      <parameter idx="1" name="VALUE" value="0"/>
      <image>
        <hotzone points="6,-30,-6,30"/>
        <shape type="line" width="Hair" color="#0000ff" points="0,-30,0,30"/>
        <shape type="line" width="1" color="#0000ff" points="4,-6,-4,-6"/>
        <shape type="line" width="1" color="#0000ff" points="-4,-6,0,4"/>
        <shape type="line" width="1" color="#0000ff" points="0,4,4,-6"/>
        <pin position="0,-30" dir="0" length="0" text="1"/>
        <pin position="0,30" dir="0" length="0" text="2"/>
        <label text="ILoad" position="1870,310" textroot=" " orientation="0" color="#228822"/>
      </image>
    </component>
    <wire points="1870,200,1870,220" label=""/>
    <wire points="1870,620,1870,640" label=""/>
    <component type="Rload" mirrored="0" typeid="57" nodematch="0" macrotype="2" position="1870,500" orientation="0">
      <parameter idx="0" encrypted="0">
        <![CDATA[
***********************************
*     Created by WB Importer      *
***********************************
.subckt OUTPUT_BLOCK_WB_OUTPUT_BLOCK_STARTUP_PROBE_Rload 1 2
Rload 1 2 5.0

.ends]]>
      </parameter>
      <image>
        <hotzone points="-10,60,10,-60"/>
        <shape type="line" width="1" color="#0000ff" points="0,60,0,40"/>
        <shape type="line" width="1" color="#0000ff" points="0,40,-10,30"/>
        <shape type="line" width="1" color="#0000ff" points="-10,30,10,10"/>
        <shape type="line" width="1" color="#0000ff" points="10,10,-10,-10"/>
        <shape type="line" width="1" color="#0000ff" points="-10,-10,10,-30"/>
        <shape type="line" width="1" color="#0000ff" points="10,-30,0,-40"/>
        <shape type="line" width="1" color="#0000ff" points="0,-40,0,-60"/>
        <pin position="0,-60" dir="0" length="0" text="1"/>
        <pin position="0,60" dir="0" length="0" text="2"/>
        <label text="Rload" position="1888,470" textroot=" " orientation="0" color="#228822"/>
      </image>
    </component>
    <wire points="1870,620,1870,560" label=""/>
    <wire points="1870,380,1870,440" label=""/>
    <wire points="1870,380,1870,340" label=""/>
    <wire points="1870,220,1870,280" label=""/>
  </circuit>
  <analysis>
    <altium_simulation>
      <parameter idx="0" name="TSTOP" value="1100u" group=".TRAN"/>
      <parameter idx="1" name="RELTOL" value="0.001" group=".TRAN"/>
      <parameter idx="2" name="VABSTOL" value="10u" group=".TRAN"/>
      <parameter idx="3" name="KCLTOL" value="10n" group=".TRAN"/>
      <parameter idx="4" name="LTERATIO" value="20" group=".TRAN"/>
      <parameter idx="5" name="IABSTOL" value="10n" group=".TRAN"/>
      <parameter idx="6" name="TRES" value="2n" group=".TRAN"/>
      <parameter idx="7" name="TSTART" value="0" group=".TRAN"/>
      <parameter idx="8" name="CMIN" value="1f" group=".TRAN"/>
      <parameter idx="9" name="LTERELRATIO" value="20" group=".TRAN"/>
      <parameter idx="10" name="OPTSTEP" value="off" group=".TRAN"/>
      <parameter idx="11" name="MAXMOS_DIM" value="1000000000" group=".OPTIONS"/>
      <parameter idx="12" name="TRAN_LIMITING" value="true" group=".OPTIONS"/>
      <parameter idx="13" name="FILTER" value="false" group=".OPTIONS"/>
      <parameter idx="14" name="ROUND_RELTOL" value="1" group=".OPTIONS"/>
      <parameter idx="15" name="CHECK_DCMAX" value="false" group=".OPTIONS"/>
      <parameter idx="16" name="ROUND_ABSTOL" value="1" group=".OPTIONS"/>
      <parameter idx="17" name="Simulator" value="pspice" group="GENERAL"/>
    </altium_simulation>